#======================================================================

# CRYSTAL DATA

#----------------------------------------------------------------------

data_VESTA_phase_1


_pd_phase_name                         'C    Li'
_cell_length_a                         9.84480
_cell_length_b                         9.84480
_cell_length_c                         12.00000
_cell_angle_alpha                      90
_cell_angle_beta                       90
_cell_angle_gamma                      120
_symmetry_space_group_name_H-M         'P 1'
_symmetry_Int_Tables_number            1

loop_
_symmetry_equiv_pos_as_xyz
   'x, y, z'

loop_
   _atom_site_label
   _atom_site_occupancy
   _atom_site_fract_x
   _atom_site_fract_y
   _atom_site_fract_z
   _atom_site_adp_type
   _atom_site_B_iso_or_equiv
   _atom_site_type_symbol
   C1         1.0     0.000000      0.000000      0.000000     Biso  1.000000 C
   C2         1.0     0.083330      0.166670      0.000000     Biso  1.000000 C
   C3         1.0     0.250000      0.000000      0.000000     Biso  1.000000 C
   C4         1.0     0.333330      0.166670      0.000000     Biso  1.000000 C
   C5         1.0     0.500000      0.000000      0.000000     Biso  1.000000 C
   C6         1.0     0.583330      0.166670      0.000000     Biso  1.000000 C
   C7         1.0     0.750000      0.000000      0.000000     Biso  1.000000 C
   C8         1.0     0.833330      0.166670      0.000000     Biso  1.000000 C
   C9         1.0     0.000000      0.250000      0.000000     Biso  1.000000 C
   C10        1.0     0.083330      0.416670      0.000000     Biso  1.000000 C
   C11        1.0     0.250000      0.250000      0.000000     Biso  1.000000 C
   C12        1.0     0.333330      0.416670      0.000000     Biso  1.000000 C
   C13        1.0     0.500000      0.250000      0.000000     Biso  1.000000 C
   C14        1.0     0.583330      0.416670      0.000000     Biso  1.000000 C
   C15        1.0     0.750000      0.250000      0.000000     Biso  1.000000 C
   C16        1.0     0.833330      0.416670      0.000000     Biso  1.000000 C
   C17        1.0     0.000000      0.500000      0.000000     Biso  1.000000 C
   C18        1.0     0.083330      0.666670      0.000000     Biso  1.000000 C
   C19        1.0     0.250000      0.500000      0.000000     Biso  1.000000 C
   C20        1.0     0.333330      0.666670      0.000000     Biso  1.000000 C
   C21        1.0     0.500000      0.500000      0.000000     Biso  1.000000 C
   C22        1.0     0.583330      0.666670      0.000000     Biso  1.000000 C
   C23        1.0     0.750000      0.500000      0.000000     Biso  1.000000 C
   C24        1.0     0.833330      0.666670      0.000000     Biso  1.000000 C
   C25        1.0     0.000000      0.750000      0.000000     Biso  1.000000 C
   C26        1.0     0.083330      0.916670      0.000000     Biso  1.000000 C
   C27        1.0     0.250000      0.750000      0.000000     Biso  1.000000 C
   C28        1.0     0.333330      0.916670      0.000000     Biso  1.000000 C
   C29        1.0     0.500000      0.750000      0.000000     Biso  1.000000 C
   C30        1.0     0.583330      0.916670      0.000000     Biso  1.000000 C
   C31        1.0     0.750000      0.750000      0.000000     Biso  1.000000 C
   C32        1.0     0.833330      0.916670      0.000000     Biso  1.000000 C
   Li1        1.0     0.666665      0.333335      0.142218     Biso  1.000000 Li
